Hello world!

New line.

This line is only in new-feature branch.